  
       XFOIL         Version 6.99
  
 Calculated polar for: NACA 0015                                       
  
 1 1 Reynolds number fixed          Mach number fixed         
  
 xtrf =   1.000 (top)        1.000 (bottom)  
 Mach =   0.000     Re =     0.136 e 6     Ncrit =   9.000  9.000
  
   alpha    CL        CD       CDp       CM     Top_Xtr  Bot_Xtr  Top_Itr  Bot_Itr
  ------ -------- --------- --------- -------- -------- -------- -------- --------
 -15.000  -1.0318   0.07581   0.05063  -0.0418   1.0000   0.0708   1.0000 104.2331
 -14.700  -1.1217   0.06369   0.03837  -0.0466   1.0000   0.0693   1.0000 104.0497
 -14.400  -1.1125   0.06088   0.03660  -0.0463   1.0000   0.0707   1.0000 104.2268
 -14.100  -1.1158   0.05755   0.03394  -0.0458   1.0000   0.0719   1.0000 104.3696
 -13.800  -1.1277   0.05387   0.03082  -0.0447   1.0000   0.0729   1.0000 104.4913
 -13.500  -1.1402   0.05050   0.02793  -0.0426   1.0000   0.0741   1.0000 104.6295
 -13.200  -1.1534   0.04750   0.02531  -0.0395   1.0000   0.0754   1.0000 104.7857
 -12.900  -1.1683   0.04500   0.02302  -0.0349   1.0000   0.0766   1.0000 104.9369
 -12.600  -1.1538   0.04252   0.02143  -0.0336   1.0000   0.0789   1.0000 105.1886
 -12.300  -1.1408   0.04086   0.02034  -0.0316   1.0000   0.0813   1.0000 105.4520
 -12.000  -1.1316   0.03899   0.01880  -0.0291   1.0000   0.0840   1.0000 105.7424
 -11.700  -1.1261   0.03709   0.01703  -0.0258   1.0000   0.0866   1.0000 106.0253
 -11.400  -1.0991   0.03537   0.01625  -0.0256   1.0000   0.0903   1.0000 106.3914
 -11.100  -1.0839   0.03391   0.01508  -0.0233   1.0000   0.0941   1.0000 106.7668
 -10.800  -1.0649   0.03218   0.01383  -0.0217   1.0000   0.0982   1.0000 107.1580
 -10.500  -1.0435   0.03098   0.01315  -0.0202   1.0000   0.1029   1.0000 107.5856
 -10.200  -1.0266   0.02967   0.01201  -0.0179   1.0000   0.1080   1.0000 108.0434
  -9.900  -1.0031   0.02840   0.01144  -0.0167   1.0000   0.1138   1.0000 108.5294
  -9.600  -0.9843   0.02723   0.01051  -0.0145   1.0000   0.1204   1.0000 109.0703
  -9.300  -0.9634   0.02616   0.01000  -0.0127   1.0000   0.1275   1.0000 109.6248
  -9.000  -0.9440   0.02504   0.00930  -0.0106   1.0000   0.1355   1.0000 110.2356
  -8.700  -0.9256   0.02422   0.00873  -0.0081   1.0000   0.1448   1.0000 110.9112
  -8.400  -0.9065   0.02322   0.00827  -0.0059   1.0000   0.1547   1.0000 111.6071
  -8.100  -0.8881   0.02232   0.00776  -0.0034   1.0000   0.1661   1.0000 112.3828
  -7.800  -0.8699   0.02150   0.00730  -0.0009   1.0000   0.1793   1.0000 113.2521
  -7.500  -0.8518   0.02074   0.00690   0.0016   1.0000   0.1940   1.0000 114.1975
  -7.200  -0.8337   0.02003   0.00655   0.0042   1.0000   0.2104   1.0000 115.2222
  -6.900  -0.8155   0.01936   0.00626   0.0068   1.0000   0.2286   1.0000 116.3299
  -6.600  -0.7969   0.01876   0.00600   0.0093   1.0000   0.2487   1.0000 117.5342
  -6.300  -0.7777   0.01823   0.00576   0.0116   1.0000   0.2712   1.0000 118.8518
  -6.000  -0.7580   0.01771   0.00558   0.0139   1.0000   0.2941   1.0000 120.1812
  -5.700  -0.7377   0.01727   0.00547   0.0161   1.0000   0.3183   1.0000 121.5614
  -5.400  -0.7165   0.01691   0.00535   0.0181   1.0000   0.3445   1.0000 123.0390
  -5.100  -0.6947   0.01655   0.00534   0.0199   1.0000   0.3697   1.0000 124.4502
  -4.800  -0.6720   0.01631   0.00531   0.0216   1.0000   0.3973   1.0000 125.9822
  -4.500  -0.6489   0.01605   0.00539   0.0231   1.0000   0.4232   1.0000 127.4106
  -4.200  -0.6254   0.01589   0.00543   0.0246   1.0000   0.4514   1.0000 128.9524
  -3.900  -0.6018   0.01574   0.00558   0.0260   1.0000   0.4779   1.0000 130.3922
  -3.600  -0.5753   0.01567   0.00570   0.0267   0.9992   0.5072   1.0820 131.9841
  -3.300  -0.5198   0.01567   0.00597   0.0220   0.9908   0.5432   1.9993 133.9240
  -3.000  -0.4671   0.01560   0.00618   0.0180   0.9806   0.5773   2.8533 135.7547
  -2.700  -0.4164   0.01550   0.00634   0.0145   0.9693   0.6102   3.7015 137.5154
  -2.400  -0.3667   0.01539   0.00644   0.0114   0.9576   0.6427   4.5131 139.2486
  -2.100  -0.3150   0.01528   0.00651   0.0081   0.9469   0.6756   5.2105 141.0018
  -1.800  -0.2626   0.01514   0.00661   0.0050   0.9362   0.7049   5.8699 142.5636
  -1.500  -0.2154   0.01500   0.00663   0.0029   0.9234   0.7341   6.6309 144.1178
  -1.200  -0.1665   0.01486   0.00665   0.0009   0.9119   0.7605   7.2887 145.5268
  -0.900  -0.1187   0.01466   0.00656  -0.0008   0.9004   0.7872   7.9398 146.9474
  -0.600  -0.0788   0.01456   0.00657  -0.0007   0.8844   0.8096   8.8227 148.1429
   0.000   0.0000   0.01448   0.00658  -0.0000   0.8498   0.8498  10.7007 150.2990
   0.300   0.0392   0.01450   0.00658   0.0004   0.8305   0.8677  11.7426 151.2669
   0.600   0.0788   0.01456   0.00657   0.0007   0.8096   0.8844  12.8572 152.1774
   0.900   0.1187   0.01466   0.00656   0.0008   0.7872   0.9004  14.0532 153.0605
   1.200   0.1665   0.01486   0.00665  -0.0009   0.7605   0.9120  15.4733 153.7126
   1.500   0.2154   0.01500   0.00663  -0.0029   0.7341   0.9234  16.8821 154.3699
   1.800   0.2626   0.01514   0.00661  -0.0050   0.7049   0.9363  18.4361 155.1313
   2.100   0.3150   0.01528   0.00651  -0.0081   0.6756   0.9469  19.9975 155.7927
   2.400   0.3667   0.01539   0.00644  -0.0114   0.6427   0.9576  21.7511 156.4892
   2.700   0.4164   0.01550   0.00634  -0.0145   0.6102   0.9694  23.4844 157.3015
   3.000   0.4671   0.01559   0.00618  -0.0180   0.5773   0.9806  25.2451 158.1499
   3.300   0.5198   0.01566   0.00597  -0.0220   0.5432   0.9909  27.0761 159.0046
   3.600   0.5753   0.01567   0.00570  -0.0267   0.5073   0.9993  29.0155 159.9244
   3.900   0.6015   0.01573   0.00558  -0.0259   0.4779   1.0000  30.6043 160.0000
   4.200   0.6252   0.01589   0.00543  -0.0245   0.4515   1.0000  32.0434 160.0000
   4.500   0.6487   0.01605   0.00539  -0.0231   0.4233   1.0000  33.5863 160.0000
   4.800   0.6718   0.01630   0.00531  -0.0215   0.3974   1.0000  35.0138 160.0000
   5.100   0.6945   0.01655   0.00535  -0.0199   0.3698   1.0000  36.5462 160.0000
   5.400   0.7163   0.01690   0.00535  -0.0180   0.3445   1.0000  37.9582 160.0000
   5.700   0.7375   0.01726   0.00547  -0.0160   0.3184   1.0000  39.4341 160.0000
   6.000   0.7578   0.01771   0.00559  -0.0139   0.2942   1.0000  40.8149 160.0000
   6.300   0.7775   0.01823   0.00576  -0.0116   0.2712   1.0000  42.1447 160.0000
   6.600   0.7968   0.01876   0.00600  -0.0092   0.2488   1.0000  43.4634 160.0000
   6.900   0.8154   0.01936   0.00626  -0.0067   0.2286   1.0000  44.6681 160.0000
   7.200   0.8336   0.02002   0.00656  -0.0042   0.2105   1.0000  45.7756 160.0000
   7.500   0.8517   0.02074   0.00690  -0.0016   0.1941   1.0000  46.8000 160.0000
   7.800   0.8698   0.02150   0.00731   0.0009   0.1793   1.0000  47.7461 160.0000
   8.100   0.8880   0.02232   0.00777   0.0035   0.1661   1.0000  48.6156 160.0000
   8.400   0.9065   0.02322   0.00827   0.0059   0.1547   1.0000  49.3923 160.0000
   8.700   0.9256   0.02421   0.00874   0.0081   0.1448   1.0000  50.0882 160.0000
   9.000   0.9440   0.02504   0.00930   0.0106   0.1355   1.0000  50.7643 160.0000
   9.300   0.9635   0.02615   0.01001   0.0127   0.1275   1.0000  51.3751 160.0000
   9.600   0.9844   0.02723   0.01052   0.0145   0.1203   1.0000  51.9304 160.0000
   9.900   1.0032   0.02840   0.01145   0.0167   0.1138   1.0000  52.4716 160.0000
  10.200   1.0268   0.02967   0.01202   0.0178   0.1080   1.0000  52.9584 160.0000
  10.500   1.0437   0.03098   0.01316   0.0202   0.1029   1.0000  53.4156 160.0000
  10.800   1.0652   0.03219   0.01384   0.0216   0.0982   1.0000  53.8434 160.0000
  11.100   1.0842   0.03392   0.01509   0.0233   0.0940   1.0000  54.2349 160.0000
  11.400   1.0995   0.03538   0.01627   0.0255   0.0902   1.0000  54.6106 160.0000
  11.700   1.1267   0.03711   0.01706   0.0257   0.0865   1.0000  54.9776 160.0000
  12.300   1.1414   0.04087   0.02037   0.0315   0.0813   1.0000  55.5508 160.0000
  12.600   1.1547   0.04253   0.02146   0.0334   0.0788   1.0000  55.8152 160.0000
  12.900   1.1687   0.04501   0.02307   0.0348   0.0766   1.0000  56.0653 160.0000
  13.200   1.1540   0.04752   0.02537   0.0393   0.0753   1.0000  56.2174 160.0000
  13.500   1.1409   0.05052   0.02800   0.0424   0.0740   1.0000  56.3744 160.0000
  13.800   1.1287   0.05389   0.03089   0.0445   0.0729   1.0000  56.5127 160.0000
  14.100   1.1173   0.05754   0.03399   0.0456   0.0718   1.0000  56.6366 160.0000
  14.400   1.1146   0.06082   0.03660   0.0461   0.0706   1.0000  56.7813 160.0000
  14.700   1.1266   0.06357   0.03821   0.0464   0.0691   1.0000  56.9682 160.0000
  15.000   1.0989   0.06945   0.04340   0.0456   0.0687   1.0000  57.0133 160.0000
  15.300   1.0599   0.07701   0.05054   0.0429   0.0688   1.0000  57.0111 160.0000
