  
       XFOIL         Version 6.99
  
 Calculated polar for: NACA 0015                                       
  
 1 1 Reynolds number fixed          Mach number fixed         
  
 xtrf =   1.000 (top)        1.000 (bottom)  
 Mach =   0.000     Re =     0.136 e 6     Ncrit =   9.000  9.000
  
   alpha    CL        CD       CDp       CM     Top_Xtr  Bot_Xtr  Top_Itr  Bot_Itr
  ------ -------- --------- --------- -------- -------- -------- -------- --------
 -15.000  -1.0318   0.07581   0.05063  -0.0418   1.0000   0.0708   1.0000 104.2331
 -14.800  -1.1225   0.06520   0.03936  -0.0466   1.0000   0.0688   1.0000 103.9970
 -14.600  -1.1135   0.06298   0.03814  -0.0464   1.0000   0.0699   1.0000 104.1255
 -14.400  -1.1125   0.06088   0.03660  -0.0463   1.0000   0.0707   1.0000 104.2268
 -14.200  -1.1131   0.05876   0.03494  -0.0460   1.0000   0.0715   1.0000 104.3269
 -14.000  -1.1194   0.05631   0.03290  -0.0455   1.0000   0.0722   1.0000 104.4101
 -13.800  -1.1277   0.05387   0.03082  -0.0447   1.0000   0.0729   1.0000 104.4913
 -13.600  -1.1360   0.05158   0.02886  -0.0434   1.0000   0.0737   1.0000 104.5809
 -13.400  -1.1444   0.04945   0.02703  -0.0417   1.0000   0.0745   1.0000 104.6807
 -13.200  -1.1534   0.04750   0.02531  -0.0395   1.0000   0.0754   1.0000 104.7860
 -13.000  -1.1631   0.04576   0.02374  -0.0366   1.0000   0.0762   1.0000 104.8892
 -12.800  -1.1735   0.04430   0.02235  -0.0331   1.0000   0.0770   1.0000 104.9821
 -12.600  -1.1538   0.04252   0.02143  -0.0336   1.0000   0.0789   1.0000 105.1886
 -12.400  -1.1442   0.04144   0.02076  -0.0324   1.0000   0.0805   1.0000 105.3631
 -12.200  -1.1371   0.04025   0.01987  -0.0309   1.0000   0.0821   1.0000 105.5462
 -12.000  -1.1316   0.03899   0.01880  -0.0291   1.0000   0.0840   1.0000 105.7424
 -11.800  -1.1289   0.03777   0.01763  -0.0268   1.0000   0.0857   1.0000 105.9320
 -11.600  -1.1140   0.03629   0.01673  -0.0263   1.0000   0.0879   1.0000 106.1580
 -11.400  -1.0991   0.03537   0.01625  -0.0256   1.0000   0.0903   1.0000 106.3916
 -11.200  -1.0887   0.03442   0.01551  -0.0241   1.0000   0.0928   1.0000 106.6382
 -11.000  -1.0799   0.03343   0.01461  -0.0224   1.0000   0.0953   1.0000 106.8927
 -10.800  -1.0649   0.03218   0.01383  -0.0217   1.0000   0.0982   1.0000 107.1578
 -10.600  -1.0498   0.03138   0.01343  -0.0208   1.0000   0.1012   1.0000 107.4350
 -10.400  -1.0378   0.03057   0.01280  -0.0194   1.0000   0.1046   1.0000 107.7427
 -10.200  -1.0266   0.02967   0.01201  -0.0179   1.0000   0.1080   1.0000 108.0431
 -10.000  -1.0097   0.02874   0.01165  -0.0173   1.0000   0.1118   1.0000 108.3603
  -9.800  -0.9969   0.02805   0.01117  -0.0160   1.0000   0.1160   1.0000 108.7123
  -9.600  -0.9843   0.02723   0.01051  -0.0145   1.0000   0.1204   1.0000 109.0703
  -9.400  -0.9697   0.02646   0.01020  -0.0135   1.0000   0.1249   1.0000 109.4237
  -9.200  -0.9575   0.02586   0.00974  -0.0119   1.0000   0.1302   1.0000 109.8389
  -9.000  -0.9440   0.02504   0.00930  -0.0106   1.0000   0.1355   1.0000 110.2353
  -8.800  -0.9315   0.02447   0.00898  -0.0090   1.0000   0.1414   1.0000 110.6674
  -8.600  -0.9189   0.02379   0.00853  -0.0075   1.0000   0.1480   1.0000 111.1390
  -8.400  -0.9065   0.02322   0.00827  -0.0059   1.0000   0.1547   1.0000 111.6070
  -8.200  -0.8941   0.02261   0.00787  -0.0043   1.0000   0.1624   1.0000 112.1376
  -8.000  -0.8821   0.02208   0.00762  -0.0026   1.0000   0.1704   1.0000 112.6726
  -7.800  -0.8699   0.02150   0.00730  -0.0009   1.0000   0.1793   1.0000 113.2511
  -7.600  -0.8578   0.02106   0.00703   0.0008   1.0000   0.1892   1.0000 113.8925
  -7.400  -0.8459   0.02051   0.00681   0.0025   1.0000   0.1991   1.0000 114.5149
  -7.200  -0.8337   0.02003   0.00655   0.0042   1.0000   0.2104   1.0000 115.2222
  -7.000  -0.8214   0.01966   0.00631   0.0059   1.0000   0.2231   1.0000 115.9971
  -6.800  -0.8093   0.01918   0.00616   0.0076   1.0000   0.2354   1.0000 116.7410
  -6.600  -0.7969   0.01876   0.00600   0.0093   1.0000   0.2487   1.0000 117.5336
  -6.400  -0.7842   0.01838   0.00584   0.0109   1.0000   0.2631   1.0000 118.3795
  -6.200  -0.7712   0.01803   0.00570   0.0124   1.0000   0.2783   1.0000 119.2648
  -6.000  -0.7580   0.01771   0.00558   0.0139   1.0000   0.2941   1.0000 120.1813
  -5.800  -0.7444   0.01742   0.00548   0.0154   1.0000   0.3105   1.0000 121.1184
  -5.600  -0.7306   0.01715   0.00541   0.0167   1.0000   0.3273   1.0000 122.0730
  -5.400  -0.7165   0.01691   0.00535   0.0181   1.0000   0.3445   1.0000 123.0390
  -5.200  -0.7020   0.01669   0.00531   0.0193   1.0000   0.3619   1.0000 124.0151
  -5.000  -0.6871   0.01649   0.00530   0.0205   1.0000   0.3796   1.0000 124.9997
  -4.800  -0.6720   0.01631   0.00531   0.0216   1.0000   0.3973   1.0000 125.9821
  -4.600  -0.6566   0.01615   0.00533   0.0226   1.0000   0.4152   1.0000 126.9708
  -4.400  -0.6411   0.01601   0.00537   0.0236   1.0000   0.4332   1.0000 127.9596
  -4.200  -0.6254   0.01589   0.00543   0.0246   1.0000   0.4514   1.0000 128.9523
  -4.000  -0.6097   0.01580   0.00550   0.0255   1.0000   0.4696   1.0000 129.9443
  -3.800  -0.5939   0.01572   0.00559   0.0264   1.0000   0.4879   1.0000 130.9392
  -3.600  -0.5753   0.01567   0.00570   0.0267   0.9992   0.5072   1.0820 131.9842
  -3.400  -0.5390   0.01564   0.00589   0.0237   0.9933   0.5303   1.7259 133.2299
  -3.200  -0.5035   0.01561   0.00604   0.0209   0.9870   0.5535   2.3168 134.4782
  -3.000  -0.4671   0.01560   0.00618   0.0180   0.9806   0.5773   2.8533 135.7548
  -2.800  -0.4340   0.01554   0.00625   0.0157   0.9728   0.6002   3.4465 136.9789
  -2.600  -0.3972   0.01548   0.00637   0.0129   0.9665   0.6221   3.9090 138.1490
  -2.400  -0.3667   0.01539   0.00644   0.0114   0.9576   0.6427   4.5134 139.2490
  -2.200  -0.3294   0.01532   0.00652   0.0087   0.9516   0.6642   4.9130 140.3991
  -2.000  -0.3002   0.01524   0.00657   0.0076   0.9422   0.6841   5.5034 141.4580
  -1.800  -0.2626   0.01514   0.00661   0.0050   0.9362   0.7049   5.8710 142.5653
  -1.600  -0.2325   0.01506   0.00664   0.0039   0.9272   0.7239   6.4064 143.5780
  -1.400  -0.1968   0.01495   0.00665   0.0018   0.9205   0.7429   6.7977 144.5876
  -1.200  -0.1665   0.01486   0.00665   0.0009   0.9119   0.7605   7.2892 145.5269
  -1.000  -0.1356   0.01475   0.00663  -0.0000   0.9034   0.7775   7.7729 146.4277
  -0.800  -0.1074   0.01466   0.00662  -0.0004   0.8939   0.7937   8.3008 147.2941
  -0.600  -0.0788   0.01456   0.00657  -0.0007   0.8844   0.8096   8.8228 148.1429
  -0.400  -0.0547   0.01451   0.00656  -0.0002   0.8727   0.8252   9.4657 148.9776
  -0.200  -0.0232   0.01447   0.00655  -0.0008   0.8638   0.8368   9.9479 149.6000
   0.000   0.0000   0.01448   0.00658  -0.0000   0.8498   0.8498  10.7008 150.2993
   0.200   0.0232   0.01447   0.00655   0.0008   0.8368   0.8638  11.4002 151.0521
   0.400   0.0547   0.01451   0.00656   0.0002   0.8252   0.8727  12.0230 151.5345
   0.600   0.0788   0.01456   0.00657   0.0007   0.8096   0.8844  12.8572 152.1775
   0.800   0.1074   0.01466   0.00662   0.0004   0.7937   0.8939  13.7061 152.6999
   1.000   0.1356   0.01475   0.00664   0.0000   0.7775   0.9034  14.5721 153.2273
   1.200   0.1665   0.01486   0.00665  -0.0009   0.7605   0.9120  15.4735 153.7125
   1.400   0.1968   0.01495   0.00665  -0.0018   0.7429   0.9205  16.4122 154.2028
   1.600   0.2324   0.01506   0.00665  -0.0039   0.7239   0.9272  17.4219 154.5951
   1.800   0.2626   0.01514   0.00661  -0.0050   0.7049   0.9362  18.4363 155.1309
   2.000   0.3002   0.01524   0.00657  -0.0076   0.6841   0.9422  19.5417 155.4984
   2.200   0.3294   0.01532   0.00652  -0.0087   0.6642   0.9516  20.6008 156.0878
   2.400   0.3667   0.01539   0.00644  -0.0114   0.6427   0.9576  21.7511 156.4895
   2.600   0.3972   0.01548   0.00637  -0.0129   0.6221   0.9665  22.8516 157.0930
   2.800   0.4339   0.01554   0.00625  -0.0157   0.6002   0.9728  24.0223 157.5590
   3.000   0.4671   0.01559   0.00618  -0.0180   0.5773   0.9806  25.2451 158.1499
   3.200   0.5035   0.01561   0.00605  -0.0209   0.5535   0.9871  26.5212 158.6885
   3.400   0.5390   0.01563   0.00589  -0.0237   0.5303   0.9934  27.7696 159.2796
   3.600   0.5753   0.01567   0.00570  -0.0267   0.5073   0.9993  29.0153 159.9244
   3.800   0.5937   0.01572   0.00560  -0.0263   0.4880   1.0000  30.0557 160.0000
   4.000   0.6095   0.01579   0.00551  -0.0255   0.4697   1.0000  31.0521 160.0000
   4.200   0.6252   0.01589   0.00543  -0.0245   0.4515   1.0000  32.0441 160.0000
   4.400   0.6409   0.01601   0.00538  -0.0236   0.4333   1.0000  33.0363 160.0000
   4.600   0.6564   0.01614   0.00534  -0.0226   0.4153   1.0000  34.0251 160.0000
   4.800   0.6718   0.01630   0.00531  -0.0215   0.3974   1.0000  35.0138 160.0000
   5.000   0.6869   0.01648   0.00530  -0.0204   0.3796   1.0000  35.9976 160.0000
   5.200   0.7018   0.01668   0.00532  -0.0193   0.3619   1.0000  36.9822 160.0000
   5.400   0.7163   0.01690   0.00535  -0.0180   0.3445   1.0000  37.9577 160.0000
   5.600   0.7304   0.01715   0.00541  -0.0167   0.3274   1.0000  38.9237 160.0000
   5.800   0.7442   0.01742   0.00549  -0.0153   0.3106   1.0000  39.8783 160.0000
   6.000   0.7578   0.01771   0.00559  -0.0139   0.2942   1.0000  40.8154 160.0000
   6.200   0.7711   0.01803   0.00571  -0.0124   0.2783   1.0000  41.7316 160.0000
   6.400   0.7841   0.01837   0.00585  -0.0108   0.2631   1.0000  42.6173 160.0000
   6.600   0.7968   0.01876   0.00600  -0.0092   0.2488   1.0000  43.4634 160.0000
   6.800   0.8092   0.01918   0.00616  -0.0076   0.2355   1.0000  44.2563 160.0000
   7.200   0.8336   0.02002   0.00656  -0.0042   0.2105   1.0000  45.7760 160.0000
   7.400   0.8458   0.02051   0.00681  -0.0025   0.1991   1.0000  46.4832 160.0000
   7.600   0.8577   0.02106   0.00703  -0.0008   0.1892   1.0000  47.1054 160.0000
   7.800   0.8698   0.02150   0.00731   0.0009   0.1793   1.0000  47.7477 160.0000
   8.000   0.8820   0.02208   0.00763   0.0026   0.1705   1.0000  48.3261 160.0000
   8.200   0.8940   0.02261   0.00787   0.0043   0.1624   1.0000  48.8617 160.0000
   8.400   0.9065   0.02322   0.00827   0.0059   0.1547   1.0000  49.3922 160.0000
   8.600   0.9189   0.02379   0.00853   0.0075   0.1480   1.0000  49.8606 160.0000
   8.800   0.9315   0.02447   0.00898   0.0090   0.1414   1.0000  50.3323 160.0000
   9.000   0.9440   0.02504   0.00930   0.0106   0.1355   1.0000  50.7644 160.0000
   9.200   0.9575   0.02586   0.00975   0.0119   0.1302   1.0000  51.1614 160.0000
   9.400   0.9698   0.02646   0.01021   0.0135   0.1249   1.0000  51.5770 160.0000
   9.600   0.9844   0.02723   0.01052   0.0145   0.1203   1.0000  51.9304 160.0000
   9.800   0.9970   0.02805   0.01118   0.0159   0.1160   1.0000  52.2890 160.0000
  10.000   1.0099   0.02874   0.01166   0.0173   0.1118   1.0000  52.6414 160.0000
  10.200   1.0268   0.02967   0.01202   0.0178   0.1080   1.0000  52.9583 160.0000
  10.400   1.0380   0.03057   0.01281   0.0194   0.1046   1.0000  53.2586 160.0000
  10.600   1.0500   0.03138   0.01344   0.0208   0.1012   1.0000  53.5666 160.0000
  10.800   1.0652   0.03219   0.01384   0.0216   0.0982   1.0000  53.8434 160.0000
  11.000   1.0801   0.03343   0.01463   0.0223   0.0953   1.0000  54.1092 160.0000
  11.200   1.0890   0.03442   0.01553   0.0241   0.0927   1.0000  54.3637 160.0000
  11.400   1.0995   0.03538   0.01627   0.0255   0.0903   1.0000  54.6105 160.0000
  11.600   1.1144   0.03629   0.01674   0.0262   0.0879   1.0000  54.8443 160.0000
  11.800   1.1292   0.03778   0.01765   0.0267   0.0857   1.0000  55.0699 160.0000
  12.000   1.1320   0.03899   0.01883   0.0290   0.0839   1.0000  55.2594 160.0000
  12.200   1.1376   0.04026   0.01990   0.0308   0.0821   1.0000  55.4565 160.0000
  12.400   1.1448   0.04145   0.02079   0.0323   0.0804   1.0000  55.6400 160.0000
  12.600   1.1547   0.04253   0.02146   0.0334   0.0788   1.0000  55.8151 160.0000
  12.800   1.1738   0.04432   0.02239   0.0331   0.0770   1.0000  56.0197 160.0000
  13.000   1.1636   0.04578   0.02379   0.0365   0.0762   1.0000  56.1133 160.0000
  13.200   1.1540   0.04752   0.02537   0.0393   0.0753   1.0000  56.2173 160.0000
  13.400   1.1451   0.04948   0.02709   0.0415   0.0745   1.0000  56.3230 160.0000
  13.600   1.1368   0.05160   0.02893   0.0432   0.0736   1.0000  56.4233 160.0000
  13.800   1.1287   0.05389   0.03089   0.0445   0.0729   1.0000  56.5130 160.0000
  14.000   1.1207   0.05632   0.03296   0.0453   0.0722   1.0000  56.5949 160.0000
  14.200   1.1150   0.05872   0.03496   0.0458   0.0715   1.0000  56.6809 160.0000
  14.400   1.1146   0.06082   0.03660   0.0461   0.0706   1.0000  56.7813 160.0000
  14.600   1.1176   0.06279   0.03799   0.0463   0.0698   1.0000  56.8888 160.0000
  14.800   1.1229   0.06527   0.03952   0.0464   0.0688   1.0000  57.0045 160.0000
  15.000   1.0989   0.06945   0.04340   0.0456   0.0687   1.0000  57.0132 160.0000
  15.200   1.0733   0.07430   0.04796   0.0440   0.0687   1.0000  57.0141 160.0000
